#!/bin/bash

## USAGE: watcher [File] [Frequency] [Receiver] [Program] [Simulation Folder]

i=1
FILE=$1
PROGRAM=$4
TIME=0
if [ -z "$1" ]
  then
    CASE=${PWD##*/}
else
    CASE=$5
fi

while [ 1 ]
do
	## CFX OPTIONS
	if [[ $PROGRAM == "cfx" ]]; then
		if [[ "$(tail -1 $FILE)" == "This run of the ANSYS CFX Solver has finished." ]]; then
			echo "SUA SIMULAÇÃO ESTÁ PARADA !!!" | telebot -s $3
			exit 0
		elif [[ "$(du --time $FILE | awk '{print $2 "" $3}')" == "$TIME" ]]; then
			echo "*A SIMULAÇÃO ACABOU*" | telebot -s $3
			exit 0
		fi
		FLOWTIME=$( tail -1000 $FILE | grep "TIME STEP" | tail -1 | awk '{print $8}' )
		TIMESTEP=$( tail -1000 $FILE | grep "TIME STEP" | tail -1 | awk '{print $4}' )


		############## FORMATING #########################
		FLOWTIME_DEC=$(printf "%.f" "$FLOWTIME")
		STEP_DEC=$(printf "%.f" "$TIMESTEP")
		FLOWTIME_H=$(bc <<< "scale=3;$FLOWTIME/3600")
		FLOWTIME_D=$(bc <<< "scale=3;$FLOWTIME/86400")
		##################################################

		MESSAGE="*STEP*:$STEP_DEC\n*FLOW*:$FLOWTIME_DEC\[s], $FLOWTIME_H\[h], $FLOWTIME_D\[d]"
		echo -e $MESSAGE | telebot -s $3
		TIME=$( du --time $FILE | awk '{print $3}' )

	## FLUENT OPTIONS
	elif [[ $PROGRAM == "fluent" ]]; then
		if [[ $TIME == 0 ]]; then
			echo -e "*Hello Master*\nWhat a wonderful day to simulate!" | telebot -s $3
		fi
		if [[ "$(tail -500 $FILE | grep "exit" | awk '{print $1}')" == "exit" ]]; then
			echo "*A SIMULAÇÃO ACABOU*" | telebot -s $3
			exit 0
		elif [[ "$(du --time $FILE | awk '{print $2 "" $3}')" == "$TIME" ]]; then
			echo "*A SIMULAÇÃO ACABOU*" | telebot -s $3
			exit 0
		fi
		FLOWTIME=$( tail -80 $FILE | grep "Flow time" | tail -1 )
		if [[ $FLOWTIME == $AUX ]]; then
			echo "*A SIMULAÇÃO ACABOU*" | telebot -s $3
			exit 0
		else
			MESSAGE="The current status of your simulation is:\n$FLOWTIME"
			echo -e $MESSAGE | telebot -s $3
			TIME=$( du --time $FILE | awk '{print $2}' )
		fi
		AUX=$FLOWTIME

	## OPENFOAM OPTIONS
	elif [[ $PROGRAM == "openfoam" ]]; then
		if [[ $TIME == 0 ]]; then
			echo -e "*Hello Master*\nWhat a wonderful day to simulate!" | telebot -s $3
			cd log/
		fi
		if [[ "$(tail -500 $FILE | grep "End" | awk '{print $1}')" == "End" ]]; then
			echo "*A SIMULAÇÃO $CASE ACABOU*" | telebot -s $3
			exit 0
		elif [[ "$(du --time $FILE | awk '{print $2 "" $3}')" == "$TIME" ]]; then
			echo "*A SIMULAÇÃO $CASE ACABOU*" | telebot -s $3
			exit 0
		fi
		FLOWTIME=$( tail -200 $FILE | grep -w "Time =" | tail -1 )
		if [[ $FLOWTIME == $AUX ]]; then
			echo "*A SIMULAÇÃO $CASE ACABOU*" | telebot -s $3
			exit 0
		else
			MESSAGE="The current status of your *$CASE* is:\n$FLOWTIME"
			echo -e $MESSAGE | telebot -s $3
			TIME=$( du --time $FILE | awk '{print $2}' )
		fi
		AUX=$FLOWTIME
	else
		printf "Sorry program not recognized\nThe current supported options are:\n\t - cfx\n\t - fluent\n\t - openfoam\n"
		exit 1
	fi
	sleep $2
done
